Version 4
SHEET 1 2036 756
WIRE 960 -224 400 -224
WIRE 272 -176 240 -176
WIRE 320 -176 272 -176
WIRE 496 -176 416 -176
WIRE 608 -176 576 -176
WIRE 656 -176 608 -176
WIRE 736 -176 656 -176
WIRE 240 -144 240 -176
WIRE 496 -144 496 -176
WIRE 608 -128 608 -176
WIRE 816 -96 736 -96
WIRE 960 -80 960 -224
WIRE 960 -80 880 -80
WIRE 816 -64 800 -64
WIRE 240 -16 240 -64
WIRE 496 -16 496 -80
WIRE 496 -16 240 -16
WIRE 608 -16 608 -64
WIRE 608 -16 496 -16
WIRE 736 -16 608 -16
WIRE 496 0 496 -16
WIRE -32 32 -64 32
WIRE -16 32 -32 32
WIRE 288 32 208 32
WIRE 368 32 288 32
WIRE 528 32 496 32
WIRE 288 48 288 32
WIRE 368 48 368 32
WIRE 496 48 496 32
WIRE 528 96 480 96
WIRE 800 96 800 -64
WIRE 800 96 752 96
WIRE 848 96 800 96
WIRE 960 96 928 96
WIRE -32 128 -32 32
WIRE -16 128 -32 128
WIRE 224 128 208 128
WIRE 288 144 288 112
WIRE 368 144 368 128
WIRE 800 160 800 96
WIRE 800 160 752 160
WIRE -16 224 -32 224
WIRE 224 224 208 224
WIRE 320 224 304 224
WIRE 480 304 480 96
WIRE 800 304 800 160
WIRE 800 304 480 304
WIRE 896 304 864 304
WIRE 896 320 896 304
FLAG 496 0 0
FLAG 272 -176 Vcc
FLAG 752 32 Vcc
FLAG 528 224 Vcc
FLAG 960 96 Vcc
FLAG 896 320 0
FLAG 496 48 0
FLAG 848 -112 V10
FLAG 848 -48 0
FLAG -32 224 0
FLAG 320 224 0
FLAG 288 144 0
FLAG 368 144 0
FLAG 224 128 0
FLAG -64 32 Vcc
FLAG 368 32 V10
FLAG 656 -176 out
FLAG 736 -256 0
SYMBOL cap 592 -128 R0
SYMATTR InstName C1
SYMATTR Value 250µ
SYMATTR SpiceLine V=25
SYMBOL ind 480 -160 R270
WINDOW 0 32 56 VTop 2
WINDOW 3 5 56 VBottom 2
SYMATTR InstName L1
SYMATTR Value 1m
SYMBOL schottky 512 -80 R180
WINDOW 0 24 64 Left 2
WINDOW 3 -36 8 Left 2
SYMATTR InstName D1
SYMATTR Value MBRS340
SYMATTR Description Diode
SYMATTR Type diode
SYMBOL voltage 240 -160 R0
WINDOW 123 0 0 Left 0
WINDOW 39 0 0 Left 0
SYMATTR InstName V1
SYMATTR Value 5
SYMBOL Misc\\NE555 640 128 R0
SYMATTR InstName U1
SYMBOL res 944 80 R90
WINDOW 0 0 56 VBottom 2
WINDOW 3 32 56 VTop 2
SYMATTR InstName R3
SYMATTR Value 5.1k
SYMBOL cap 864 288 R90
WINDOW 0 0 32 VBottom 2
WINDOW 3 32 32 VTop 2
SYMATTR InstName C2
SYMATTR Value 10n
SYMBOL nmos 320 -224 M90
SYMATTR InstName M1
SYMATTR Value IRF510
SYMBOL res 752 -80 R180
WINDOW 0 36 76 Left 2
WINDOW 3 36 40 Left 2
SYMATTR InstName R1
SYMATTR Value 1.5k
SYMBOL res 752 0 R180
WINDOW 0 36 76 Left 2
WINDOW 3 36 40 Left 2
SYMATTR InstName R2
SYMATTR Value 7.5k
SYMBOL Comparators\\LT1720 848 -144 R0
SYMATTR InstName U2
SYMBOL cap 272 48 R0
SYMATTR InstName C3
SYMATTR Value 4.7µ
SYMATTR SpiceLine Rser=30m
SYMBOL res 208 240 R270
WINDOW 0 32 56 VTop 2
WINDOW 3 0 56 VBottom 2
SYMATTR InstName R4
SYMATTR Value 4.149k
SYMBOL res 352 32 R0
SYMATTR InstName Load
SYMATTR Value 1k
SYMBOL PowerProducts\\LTM8067 96 128 R0
SYMATTR InstName U4
SYMBOL res 720 -272 R0
SYMATTR InstName Rload
SYMATTR Value 500
TEXT 232 -320 Left 2 !.tran 0 500m 0 startup
